Version 4
SHEET 1 880 680
WIRE 48 112 -32 112
WIRE 80 112 48 112
WIRE 176 112 160 112
WIRE 192 112 176 112
WIRE 304 112 272 112
WIRE -32 144 -32 112
WIRE 176 144 176 112
WIRE 176 224 176 208
WIRE -32 240 -32 224
WIRE 48 256 48 112
WIRE 80 256 48 256
WIRE 176 256 144 256
WIRE 208 256 176 256
WIRE 304 256 304 112
WIRE 304 256 272 256
WIRE 176 304 176 256
WIRE 176 400 176 384
FLAG 176 224 0
FLAG 176 400 0
FLAG -32 240 0
FLAG 304 112 Vo
SYMBOL voltage -32 128 R0
WINDOW 123 24 124 Left 2
WINDOW 39 0 0 Left 0
SYMATTR InstName V1
SYMATTR Value ""
SYMATTR Value2 AC 1
SYMBOL res 176 96 R90
WINDOW 0 0 56 VBottom 2
WINDOW 3 32 56 VTop 2
SYMATTR InstName R1
SYMATTR Value 2k2
SYMBOL res 288 96 R90
WINDOW 0 0 56 VBottom 2
WINDOW 3 32 56 VTop 2
SYMATTR InstName R2
SYMATTR Value 2k2
SYMBOL cap 160 144 R0
SYMATTR InstName C1
SYMATTR Value 100n
SYMBOL cap 144 240 R90
WINDOW 0 0 32 VBottom 2
WINDOW 3 32 32 VTop 2
SYMATTR InstName C2
SYMATTR Value 100n
SYMBOL cap 272 240 R90
WINDOW 0 0 32 VBottom 2
WINDOW 3 32 32 VTop 2
SYMATTR InstName C3
SYMATTR Value 100n
SYMBOL res 160 288 R0
SYMATTR InstName R3
SYMATTR Value 570
TEXT -66 424 Left 2 !.ac dec 1k 1 10k
