Version 4
SHEET 1 1096 680
WIRE 32 64 0 64
WIRE 144 64 96 64
WIRE 320 64 144 64
WIRE 144 160 144 64
WIRE 176 160 144 160
WIRE 320 176 320 64
WIRE 320 176 240 176
WIRE -256 192 -304 192
WIRE -144 192 -176 192
WIRE -112 192 -144 192
WIRE 0 192 0 64
WIRE 0 192 -32 192
WIRE 32 192 0 192
WIRE 144 192 112 192
WIRE 176 192 144 192
WIRE -304 224 -304 192
WIRE -144 256 -144 192
WIRE 144 256 144 192
WIRE -304 336 -304 304
WIRE -144 336 -144 320
WIRE 144 336 144 320
FLAG -144 336 0
FLAG 144 336 0
FLAG 320 176 Vo
FLAG -304 336 0
SYMBOL OpAmps\\opamp 208 112 R0
SYMATTR InstName U1
SYMBOL res 128 176 R90
WINDOW 0 0 56 VBottom 2
WINDOW 3 32 56 VTop 2
SYMATTR InstName R1
SYMATTR Value 1k
SYMBOL res -16 176 R90
WINDOW 0 0 56 VBottom 2
WINDOW 3 32 56 VTop 2
SYMATTR InstName R2
SYMATTR Value 1470
SYMBOL res -160 176 R90
WINDOW 0 0 56 VBottom 2
WINDOW 3 32 56 VTop 2
SYMATTR InstName R3
SYMATTR Value 1k
SYMBOL cap -160 256 R0
SYMATTR InstName C2
SYMATTR Value 220n
SYMBOL cap 128 256 R0
SYMATTR InstName C3
SYMATTR Value 1n
SYMBOL cap 96 48 R90
WINDOW 0 0 32 VBottom 2
WINDOW 3 32 32 VTop 2
SYMATTR InstName C1
SYMATTR Value 1µ
SYMBOL voltage -304 208 R0
WINDOW 3 24 152 Left 2
WINDOW 123 24 124 Left 2
WINDOW 39 0 0 Left 0
SYMATTR InstName V1
SYMATTR Value SINE(0 3.3 4.4k)
SYMATTR Value2 AC 1
TEXT -338 360 Left 2 !.ac dec 600 100 10k
TEXT -336 392 Left 2 !.inc opamp.sub
TEXT -256 488 Left 2 !;tran 0 2.5m 0
